L24/1726526/Vaos.dss
! ==========================================================
! VAOS DE SAIDA — barra de MT da SE -> cabeceira do alimentador
! Derivado de CTMT.BARR e CTMT.UNI_TR_AT: a BDGD nao modela o
! arranjo interno da subestacao, so o vinculo logico.
! Cada vao e o disjuntor de saida do alimentador.
! ==========================================================
New Line.VAO_ARID204 phases=3 Bus1=2662022913.1.2.3 Bus2=segm_2662022881.1.2.3 Switch=y r1=0.0001 r0=0.0001 x1=0 x0=0 c1=0 c0=0
New Monitor.M_ARID204 element=Line.VAO_ARID204 terminal=1 mode=1 ppolar=no
New Line.VAO_ARID212 phases=3 Bus1=2662023194.1.2.3 Bus2=segm_2662023175.1.2.3 Switch=y r1=0.0001 r0=0.0001 x1=0 x0=0 c1=0 c0=0
New Monitor.M_ARID212 element=Line.VAO_ARID212 terminal=1 mode=1 ppolar=no
New Line.VAO_ARID202 phases=3 Bus1=2662022817.1.2.3 Bus2=segm_2662022797.1.2.3 Switch=y r1=0.0001 r0=0.0001 x1=0 x0=0 c1=0 c0=0
New Monitor.M_ARID202 element=Line.VAO_ARID202 terminal=1 mode=1 ppolar=no
New Line.VAO_ARID201 phases=3 Bus1=2662022787.1.2.3 Bus2=segm_2662022772.1.2.3 Switch=y r1=0.0001 r0=0.0001 x1=0 x0=0 c1=0 c0=0
New Monitor.M_ARID201 element=Line.VAO_ARID201 terminal=1 mode=1 ppolar=no
New Line.VAO_ARID205 phases=3 Bus1=2662022937.1.2.3 Bus2=segm_2662022919.1.2.3 Switch=y r1=0.0001 r0=0.0001 x1=0 x0=0 c1=0 c0=0
New Monitor.M_ARID205 element=Line.VAO_ARID205 terminal=1 mode=1 ppolar=no
New Line.VAO_ARID210 phases=3 Bus1=2662023092.1.2.3 Bus2=segm_2662023089.1.2.3 Switch=y r1=0.0001 r0=0.0001 x1=0 x0=0 c1=0 c0=0
New Monitor.M_ARID210 element=Line.VAO_ARID210 terminal=1 mode=1 ppolar=no
New Line.VAO_ARID214 phases=3 Bus1=868697689.1.2.3 Bus2=segm_868697715.1.2.3 Switch=y r1=0.0001 r0=0.0001 x1=0 x0=0 c1=0 c0=0
New Monitor.M_ARID214 element=Line.VAO_ARID214 terminal=1 mode=1 ppolar=no
New Line.VAO_ARID211 phases=3 Bus1=2662023164.1.2.3 Bus2=segm_2662023129.1.2.3 Switch=y r1=0.0001 r0=0.0001 x1=0 x0=0 c1=0 c0=0
New Monitor.M_ARID211 element=Line.VAO_ARID211 terminal=1 mode=1 ppolar=no
New Line.VAO_ARID209 phases=3 Bus1=2662023074.1.2.3 Bus2=segm_2662023049.1.2.3 Switch=y r1=0.0001 r0=0.0001 x1=0 x0=0 c1=0 c0=0
New Monitor.M_ARID209 element=Line.VAO_ARID209 terminal=1 mode=1 ppolar=no
New Line.VAO_ARID203 phases=3 Bus1=2662022847.1.2.3 Bus2=segm_2662022838.1.2.3 Switch=y r1=0.0001 r0=0.0001 x1=0 x0=0 c1=0 c0=0
New Monitor.M_ARID203 element=Line.VAO_ARID203 terminal=1 mode=1 ppolar=no
